TNSAgent/tns/network/output_voltage.csv
# output_voltage.csv run at 2017-07-18 00:00:00 PDT on 2948 powerflow objects (not all are nodes)
node_name,voltA_real,voltA_imag,voltB_real,voltB_imag,voltC_real,voltC_imag
swing_bus,7970.000000,0.000000,-3985.000000,-6902.222468,-3985.000000,6902.222468
390-174458,7799.728689,-78.075228,-3967.479476,-6715.725574,-3832.249214,6793.800801
390-59548,7797.525115,-85.462518,-3972.775269,-6710.123578,-3824.749847,6795.586095
390-66586,7797.821251,-84.349277,-3971.959243,-6710.936659,-3825.862009,6795.285937
392-106295,2455.608629,-30.329378,-1254.070327,-2111.454766,-1201.538303,2141.784144
392-106314,2455.608629,-30.329378,-1254.070327,-2111.454766,-1201.538303,2141.784144
392-89656,7799.728689,-78.075228,-3967.479476,-6715.725574,-3832.249214,6793.800801
392-96374,7799.384307,-79.191368,-3968.273890,-6714.869260,-3831.110417,6794.060627
392-96694,7800.489007,-75.553606,-3965.675846,-6717.644839,-3834.813162,6793.198446
396-153620,7822.370806,-3.007884,-3913.790307,-6772.867894,-3908.580499,6775.875778
396-67859,2456.938656,-28.212342,-1252.901933,-2113.665121,-1204.036724,2141.877463
396-83540,2455.761964,-30.079492,-1253.930586,-2111.712500,-1201.831378,2141.791993
402-1375942,7799.706244,-78.149667,-3967.532719,-6715.668917,-3832.173526,6793.818583
402-1375943,7801.060649,-73.683753,-3964.342327,-6719.074822,-3836.718323,6792.758575
402-1375944,7801.602188,-71.887723,-3963.057688,-6720.441823,0.000000,0.000000
403-1231577,7821.081710,-7.283216,-3916.848305,-6769.613838,-3904.233405,6776.897054
403-180601,7806.820001,-54.582665,-3950.679975,-6733.613111,-3856.140026,6788.195776
403-180602,7803.773881,-64.685226,-3957.905989,-6725.923814,-3845.867892,6790.609039
403-181882,7804.772149,-61.374435,-3955.537895,-6728.443735,-3849.234255,6789.818170
403-181883,7801.602188,-71.887723,-3963.057688,-6720.441823,-3838.544500,6792.329546
403-247482,7810.021101,-43.966107,-3943.086316,-6741.693624,-3866.934785,6785.659731
403-469922,7799.728689,-78.075228,-3967.479476,-6715.725574,-3832.249214,6793.800801
403-469925,7801.060649,-73.683753,-3964.342327,-6719.074822,-3836.718323,6792.758575
403-470568,7799.728689,-78.075228,-3967.479476,-6715.725574,-3832.249214,6793.800801
403-474441,7801.602188,-71.887723,-3963.057688,-6720.441823,0.000000,0.000000
403-478233,7820.318964,-9.812889,-3918.657693,-6767.688444,-3901.661270,6777.501333
403-478234,7806.258072,-56.446320,-3952.012983,-6732.194639,-3854.245089,6788.640959
403-522083,7798.944701,-80.649336,-3969.316724,-6713.759565,-3829.627976,6794.408902
403-618763,7798.439604,-82.324507,-3970.514916,-6712.484554,-3827.924688,6794.809060
403-619051,7797.635812,-84.964295,-3972.399144,-6710.468555,-3825.236668,6795.432850
403-652330,0.000000,0.000000,-3963.057688,-6720.441823,0.000000,0.000000
406-1262796,2455.608629,-30.329378,-1254.070327,-2111.454766,-1201.538303,2141.784144
409-401940,2457.227541,-27.792032,-1252.682376,-2114.125457,-1204.545164,2141.917489
416-74596,7823.208846,-0.254513,-3911.824837,-6774.970343,-3911.384008,6775.224856
500-1169093,0.000000,0.000000,-3963.057688,-6720.441823,0.000000,0.000000
500-230271,7801.060649,-73.683753,0.000000,0.000000,0.000000,0.000000
500-230308,7799.706244,-78.149667,-3967.532719,-6715.668917,-3832.173526,6793.818583
500-230397,7801.060649,-73.683753,0.000000,0.000000,0.000000,0.000000
500-230426,7801.060649,-73.683753,0.000000,0.000000,0.000000,0.000000
500-2822436,7801.060649,-73.683753,-3964.342327,-6719.074822,-3836.718323,6792.758575
500-2822450,7799.706244,-78.149667,-3967.532719,-6715.668917,-3832.173526,6793.818583
500-2963174,7823.147694,-0.457326,-3911.969903,-6774.815977,-3911.177791,6775.273303
500-2963177,7823.147694,-0.457326,-3911.969903,-6774.815977,-3911.177791,6775.273303
500-626092,7799.728689,-78.075228,-3967.479476,-6715.725574,-3832.249214,6793.800801
500-933235,7797.525115,-85.462518,-3972.775269,-6710.123578,-3824.749847,6795.586095
Breaker_392-106295,2455.608629,-30.329378,-1254.070327,-2111.454766,-1201.538303,2141.784144
Breaker_392-96374,7799.700252,-78.143524,-3967.524403,-6715.666798,-3832.175849,6793.810322
Breaker_392-96694,7801.054657,-73.677611,-3964.334011,-6719.072704,-3836.720646,6792.750315
Breaker_416-74596,7969.988235,0.012059,-3984.983675,-6902.218309,-3985.004561,6902.206251
Fuse_402-1375942,7799.706244,-78.149667,-3967.532719,-6715.668917,-3832.173526,6793.818583
Fuse_402-1375943,7801.060649,-73.683753,-3964.342327,-6719.074822,-3836.718323,6792.758575
Fuse_402-1375944,7801.602188,-71.887723,-3963.057688,-6720.441823,0.000000,0.000000
Reg_TUR115,7823.289201,0.011986,-3911.634220,-6775.173182,-3911.654981,6775.161196
SW_396-67859,2456.919642,-28.192852,-1252.875547,-2113.658399,-1204.044095,2141.851251
SW_403-618763,7798.433611,-82.318364,-3970.506601,-6712.482435,-3827.927011,6794.800799
SW_409-401940,2457.208526,-27.772542,-1252.655990,-2114.118735,-1204.552536,2141.891277
SW_500-2963177,7823.141701,-0.451184,-3911.961587,-6774.813859,-3911.180114,6775.265042
SW_500-626092,7799.728689,-78.075228,-3967.479476,-6715.725574,-3832.249214,6793.800801
Xfmr_409-401940,2457.381790,-27.097786,-1252.158266,-2114.606164,-1205.223524,2141.703950
390-59546,7890.252189,-296.474069,-4202.030673,-6684.919497,-3688.545515,6981.553374
392-106294,2420.039536,-123.496624,-1316.962378,-2034.016349,-1103.751186,2157.950719
392-89014,7896.330388,-273.915749,-4185.522238,-6701.462707,-3711.107489,6975.526097
392-89655,7866.564326,-88.448763,-4009.881038,-6768.420166,-3856.683287,6856.868928
396-67860,2472.504093,-100.112309,-1323.002422,-2091.194303,-1149.610637,2191.364696
402-619382,2447.327029,-115.806424,-1323.942465,-2061.493404,-1124.050546,2177.724705
403-1203449,7894.284587,-281.531064,-4191.098258,-6695.883275,-3703.493989,6977.566083
403-470566,7897.284425,-270.431674,-4182.980183,-6704.030992,-3714.599763,6974.608417
403-470567,7897.707466,-268.856942,-4181.827146,-6705.184735,-3716.174120,6974.186578
403-520825,7967.264711,-9.936199,-3992.242414,-6894.885461,-3975.033176,6904.827050
403-520826,7969.347499,-2.183201,-3986.565581,-6900.565768,-3982.784327,6902.750182
403-520827,7965.766076,-15.514736,-3996.327083,-6890.798294,-3969.455968,6906.321425
403-520828,7966.004302,-14.627961,-3995.677776,-6891.447998,-3970.342532,6906.083876
403-520830,7960.640407,-34.594589,-4010.297570,-6876.819259,-3950.380661,6911.432524
403-520831,7956.269655,-50.864331,-4022.210461,-6864.899079,-3934.114795,6915.790853
403-520833,7946.225034,-88.254549,-4049.588006,-6837.504783,-3896.733485,6925.806921
403-520834,7936.738993,-123.565505,-4075.443093,-6811.633877,-3861.430941,6935.265998
403-520836,7930.108231,-148.247935,-4093.515851,-6793.550062,-3836.754392,6941.877912
403-520837,7912.863280,-212.440754,-4140.518567,-6746.518587,-3772.576867,6959.073845
403-520838,7911.509284,-217.480882,-4144.209007,-6742.825890,-3767.537939,6960.423991
403-520839,7910.197734,-222.363015,-4147.783761,-6739.248949,-3762.656969,6961.731814
403-521113,7901.932163,-253.130875,-4170.312340,-6716.706586,-3731.896440,6969.973890
403-521114,7900.181962,-259.645848,-4175.082678,-6711.933329,-3725.383019,6971.719116
403-521116,7900.030589,-260.209320,-4175.495258,-6711.520497,-3724.819682,6971.870059
403-618762,7891.761116,-290.924462,-4197.976212,-6689.001113,-3694.102828,6980.082380
403-695209,7889.677696,-298.612568,-4203.596506,-6683.352706,-3686.407526,6982.126234
406-905990,2420.039536,-123.496624,-1316.962378,-2034.016349,-1103.751186,2157.950719
409-401941,2485.866788,-96.408137,-1326.474033,-2104.618965,-1159.497812,2201.078891
416-32980,7969.718730,-0.801330,-3985.553759,-6901.578209,-3984.165869,6902.380007
500-230227,7900.030589,-260.209320,-4175.495258,-6711.520497,-3724.819682,6971.870059
500-625939,7900.030589,-260.209320,-4175.495258,-6711.520497,-3724.819682,6971.870059
500-709718,7900.030589,-260.209320,-4175.495258,-6711.520497,-3724.819682,6971.870059
500-709719,7900.030589,-260.209320,-4175.495258,-6711.520497,-3724.819682,6971.870059
500-712882,7892.685724,-287.482693,-4195.456109,-6691.522758,-3697.543778,6979.160401
500-933236,7889.449469,-299.462124,-4204.218561,-6682.730271,-3685.558173,6982.353812
500-933238,2467.535823,-102.498340,0.000000,0.000000,0.000000,0.000000
500-933240,0.000000,0.000000,-1322.584584,-2085.698529,0.000000,0.000000
500-933242,0.000000,0.000000,0.000000,0.000000,-1145.060829,2188.256729
Breaker_392-106294,2420.039536,-123.496624,-1316.962378,-2034.016349,-1103.751186,2157.950719
Breaker_392-106314,2455.608629,-30.329378,-1254.070327,-2111.454766,-1201.538303,2141.784144
Breaker_392-89014,7897.270534,-270.416137,-4182.959782,-6704.026731,-3714.606268,6974.588623
Breaker_392-89655,7866.564326,-88.448763,-4009.881038,-6768.420166,-3856.683287,6856.868928
Breaker_416-32980,7969.972219,0.031074,-3984.959198,-6902.213946,-3985.013009,6902.182881
Fuse_402-619382,0.000000,0.000000,-1322.519849,-2085.685008,0.000000,0.000000
Reg_SPU125,7969.942791,0.032720,-3984.943058,-6902.189284,-3984.999720,6902.156582
SW_403-618762,7891.747226,-290.908925,-4197.955811,-6688.996852,-3694.109333,6980.062587
SW_409-401941,2485.822712,-96.358837,-1326.409299,-2104.605444,-1159.518452,2201.016084
SW_500-933236,7797.525115,-85.462518,-3972.775269,-6710.123578,-3824.749847,6795.586095
Xfmr_409-401941,2486.306293,-94.772116,-1325.276119,-2105.817611,-1161.133444,2200.640635
391-1731909,7992.983558,26.114991,-3973.880312,-6935.164843,-4019.113931,6909.070201
391-559604,7992.983558,26.114991,-3973.880312,-6935.164843,-4019.113931,6909.070201
391-758992,8005.797361,36.247460,-3971.498463,-6951.422497,-4034.502830,6915.183343
393-72996,7986.497181,15.180036,-3980.101749,-6924.099020,-4006.393904,6908.918861
395-1373643,7993.043012,26.193578,0.000000,0.000000,0.000000,0.000000
395-1373661,0.000000,0.000000,-3973.841980,-6935.255625,0.000000,0.000000
395-1373663,0.000000,0.000000,0.000000,0.000000,-4019.211715,6909.082394
395-2135221,7992.983558,26.114991,0.000000,0.000000,0.000000,0.000000
395-2135223,0.000000,0.000000,-3973.880312,-6935.164843,0.000000,0.000000
395-2135225,0.000000,0.000000,0.000000,0.000000,-4019.113931,6909.070201
395-2135232,7992.983558,26.114991,0.000000,0.000000,0.000000,0.000000
395-2135234,0.000000,0.000000,-3973.880312,-6935.164843,0.000000,0.000000
395-2135235,7992.983558,26.114991,-3973.880312,-6935.164843,-4019.113931,6909.070201
395-2135236,0.000000,0.000000,0.000000,0.000000,-4019.113931,6909.070201
395-2147887,8005.797361,36.247460,0.000000,0.000000,0.000000,0.000000
395-2147889,0.000000,0.000000,-3971.498463,-6951.422497,0.000000,0.000000
395-2147891,0.000000,0.000000,0.000000,0.000000,-4034.502830,6915.183343
395-2147902,8005.797361,36.247460,-3971.498463,-6951.422497,-4034.502830,6915.183343
395-756992,7992.961634,26.075703,-3973.903375,-6935.126212,-4019.068946,6909.070860
402-458138,7987.917787,20.700846,-3976.030729,-6928.089574,-4011.885077,6907.388569
403-288844,0.000000,0.000000,-3980.155409,-6923.859349,0.000000,0.000000
403-474442,7971.371857,1.262693,-3984.592359,-6904.041841,-3986.779371,6902.779137
403-474444,7973.533367,3.251575,-3983.950621,-6906.908146,-3989.582419,6903.656545
406-1064707,7973.244424,2.985707,-3984.036406,-6906.524988,-3989.207717,6903.539256
416-14448,7970.137300,0.126733,-3984.958891,-6902.404736,-3985.178396,6902.278001
500-230142,7986.316442,15.013732,-3980.155409,-6923.859349,-4006.159522,6908.845495
500-635149,7987.952694,20.830883,0.000000,0.000000,0.000000,0.000000
500-635151,0.000000,0.000000,-3975.935568,-6928.184822,0.000000,0.000000
500-635153,0.000000,0.000000,0.000000,0.000000,-4012.015143,6907.353779
MID-395-1373661,7993.005482,26.154279,-3973.857248,-6935.203473,-4019.158917,6909.069541
MID-395-2135223,7992.983558,26.114991,-3973.880312,-6935.164843,-4019.113931,6909.070201
MID-395-2135234,7992.983558,26.114991,-3973.880312,-6935.164843,-4019.113931,6909.070201
MID-395-2147889,8005.797361,36.247460,-3971.498463,-6951.422497,-4034.502830,6915.183343
Breaker_416-14448,7970.002318,-0.009515,-3985.009399,-6902.219718,-3984.992919,6902.229233
Fuse_402-458138,7986.500222,15.177168,-3980.105754,-6924.100220,-4006.392941,6908.922929
Reg_SPU122,7970.008235,-0.013114,-3985.015474,-6902.223043,-3984.992761,6902.236156
390-49306,7968.705634,-3.895114,-3987.731712,-6899.160245,-3980.987779,6903.050743
391-1749449,2151.173462,-1263.065632,-2169.485262,-1231.435722,18.311800,2494.501354
391-758994,0.000000,0.000000,0.000000,0.000000,-3909.684609,6887.958662
391-758995,7920.177384,-57.967473,0.000000,0.000000,0.000000,0.000000
391-759604,0.000000,0.000000,-4010.385878,-6829.952479,0.000000,0.000000
395-1373628,7920.177384,-57.967473,0.000000,0.000000,0.000000,0.000000
395-1373630,0.000000,0.000000,-4010.385878,-6829.952479,0.000000,0.000000
395-1373632,0.000000,0.000000,0.000000,0.000000,-3909.684609,6887.958662
395-2147912,7920.176473,-57.967333,-4010.386715,-6829.952350,-3909.685367,6887.958779
395-2147933,2151.173462,-1263.065632,0.000000,0.000000,0.000000,0.000000
395-2147934,0.000000,0.000000,-2169.485262,-1231.435722,0.000000,0.000000
395-2147935,0.000000,0.000000,0.000000,0.000000,18.311800,2494.501354
402-1056198,7950.835517,-36.471047,-4007.057981,-6867.445672,-3943.908592,6903.880562
402-1492513,2151.173462,-1263.065632,-2169.485262,-1231.435722,18.311800,2494.501354
403-474445,7968.705634,-3.895114,-3987.731712,-6899.160245,-3980.987779,6903.050743
403-841449,7968.828107,-3.641131,-3987.572615,-6899.392913,-3981.268448,6903.029687
406-904708,7968.897604,-3.421282,-3987.416653,-6899.562668,-3981.493127,6902.979857
416-32020,7969.898179,-0.256040,-3985.171215,-6902.006689,-3984.727909,6902.262431
500-1889727,7953.392442,-35.651398,-4007.624127,-6870.069085,-3945.894963,6905.683378
500-2338883,7950.373027,-36.716828,0.000000,0.000000,0.000000,0.000000
500-2338885,0.000000,0.000000,-4007.039908,-6866.922278,0.000000,0.000000
500-2338887,0.000000,0.000000,0.000000,0.000000,-3943.464679,6903.603182
500-2974791,2151.173462,-1263.065632,-2169.485262,-1231.435722,18.311800,2494.501354
500-634865,7969.796625,-0.577298,-3985.399117,-6901.758631,-3984.399593,6902.335247
500-634866,7969.796625,-0.577298,-3985.399117,-6901.758631,-3984.399593,6902.335247
Breaker_416-32020,7969.991174,0.009279,-3984.987554,-6902.219456,-3985.003618,6902.210191
Fuse_402-1056198,7953.388028,-35.646759,-4007.617904,-6870.067579,-3945.896771,6905.677239
Fuse_402-1492513,0.000000,0.000000,-2169.485262,-1231.435722,0.000000,0.000000
Reg_SPU124,7969.982121,0.009505,-3984.982836,-6902.211727,-3984.999288,6902.202243
SCZ_395-1373628,7920.177384,-57.967473,0.000000,0.000000,0.000000,0.000000
SCZ_395-1373630,0.000000,0.000000,-4010.385878,-6829.952479,0.000000,0.000000
SCZ_395-1373632,0.000000,0.000000,0.000000,0.000000,-3909.684609,6887.958662
SCZ_395-2147887,8005.797361,36.247460,0.000000,0.000000,0.000000,0.000000
SCZ_395-2147889,0.000000,0.000000,-3971.498463,-6951.422497,0.000000,0.000000
SCZ_395-2147891,0.000000,0.000000,0.000000,0.000000,-4034.502830,6915.183343
Xfmr_391-1749449,2151.173462,-1263.065632,-2169.485262,-1231.435722,18.311800,2494.501354
390-71389,7685.809219,-8.126651,-3847.677106,-6656.745024,-3817.339892,6617.628507
391-1025850,7688.687917,-22.575360,0.000000,0.000000,0.000000,0.000000
391-1025851,0.000000,0.000000,0.000000,0.000000,-3813.946379,6622.698925
391-1025852,0.000000,0.000000,-3857.727749,-6660.106025,0.000000,0.000000
391-1025853,0.000000,0.000000,-3857.727749,-6660.106025,0.000000,0.000000
391-1025854,0.000000,0.000000,0.000000,0.000000,-3813.946379,6622.698925
391-1025856,7688.687917,-22.575360,0.000000,0.000000,0.000000,0.000000
391-1025857,0.000000,0.000000,0.000000,0.000000,-3813.946379,6622.698925
391-1025858,0.000000,0.000000,-3857.727749,-6660.106025,0.000000,0.000000
391-1025859,7688.687917,-22.575360,0.000000,0.000000,0.000000,0.000000
391-1053689,0.000000,0.000000,-3852.677168,-6659.730458,0.000000,0.000000
391-1053693,0.000000,0.000000,-3852.677168,-6659.730458,0.000000,0.000000
391-1053695,0.000000,0.000000,-3852.677168,-6659.730458,0.000000,0.000000
391-1110671,7688.687917,-22.575360,-3857.727749,-6660.106025,-3813.946379,6622.698925
391-1177556,7690.075351,-18.386951,0.000000,0.000000,0.000000,0.000000
391-1177557,0.000000,0.000000,0.000000,0.000000,-3816.355729,6622.972762
391-1602920,7690.142129,-18.874913,0.000000,0.000000,0.000000,0.000000
391-1602921,0.000000,0.000000,-3856.079175,-6661.496062,0.000000,0.000000
391-1602922,0.000000,0.000000,0.000000,0.000000,-3816.265981,6623.095853
391-1602924,7688.687917,-22.575360,0.000000,0.000000,0.000000,0.000000
391-1602925,0.000000,0.000000,-3857.727749,-6660.106025,0.000000,0.000000
391-1602926,0.000000,0.000000,0.000000,0.000000,-3813.946379,6622.698925
391-1602927,7688.687917,-22.575360,0.000000,0.000000,0.000000,0.000000
391-1602928,0.000000,0.000000,-3857.727749,-6660.106025,0.000000,0.000000
391-1602929,0.000000,0.000000,0.000000,0.000000,-3813.946379,6622.698925
391-1693204,7688.687917,-22.575360,0.000000,0.000000,0.000000,0.000000
391-1693205,0.000000,0.000000,-3857.727749,-6660.106025,0.000000,0.000000
391-1693206,0.000000,0.000000,0.000000,0.000000,-3813.946379,6622.698925
391-1696036,7688.687917,-22.575360,0.000000,0.000000,0.000000,0.000000
391-1710084,7688.687917,-22.575360,0.000000,0.000000,0.000000,0.000000
391-1710085,0.000000,0.000000,-3857.727749,-6660.106025,0.000000,0.000000
391-1710086,0.000000,0.000000,0.000000,0.000000,-3813.946379,6622.698925
391-1718725,7688.687917,-22.575360,0.000000,0.000000,0.000000,0.000000
391-1718726,0.000000,0.000000,-3857.727749,-6660.106025,0.000000,0.000000
391-1718727,0.000000,0.000000,0.000000,0.000000,-3813.946379,6622.698925
391-190928,0.000000,0.000000,-3855.383183,-6661.204801,0.000000,0.000000
391-190931,7689.334371,-22.093746,0.000000,0.000000,0.000000,0.000000
391-191220,0.000000,0.000000,0.000000,0.000000,-3814.707467,6623.025399
391-191221,0.000000,0.000000,-3857.632166,-6660.911249,0.000000,0.000000
391-191234,0.000000,0.000000,0.000000,0.000000,-3816.355729,6622.972762
391-191235,0.000000,0.000000,-3855.774384,-6661.368512,0.000000,0.000000
391-191236,7690.075351,-18.386951,0.000000,0.000000,0.000000,0.000000
391-191240,0.000000,0.000000,-3854.055824,-6660.553625,0.000000,0.000000
391-191241,7689.505558,-15.846310,0.000000,0.000000,0.000000,0.000000
391-191242,0.000000,0.000000,0.000000,0.000000,-3816.753137,6622.117418
391-191255,7687.019048,-10.653330,0.000000,0.000000,0.000000,0.000000
391-191256,0.000000,0.000000,0.000000,0.000000,-3817.147844,6619.097748
391-191257,0.000000,0.000000,-3849.764889,-6657.991596,0.000000,0.000000
391-191258,0.000000,0.000000,-3856.079175,-6661.496062,0.000000,0.000000
391-191259,0.000000,0.000000,0.000000,0.000000,-3816.265981,6623.095853
391-191260,7690.142129,-18.874913,0.000000,0.000000,0.000000,0.000000
391-191264,7690.075351,-18.386951,0.000000,0.000000,0.000000,0.000000
391-191265,0.000000,0.000000,0.000000,0.000000,-3816.355729,6622.972762
391-191266,0.000000,0.000000,-3855.774384,-6661.368512,0.000000,0.000000
391-191267,0.000000,0.000000,0.000000,0.000000,-3817.147844,6619.097748
391-191268,0.000000,0.000000,-3849.764889,-6657.991596,0.000000,0.000000
391-191269,7687.019048,-10.653330,0.000000,0.000000,0.000000,0.000000
391-191277,0.000000,0.000000,-3857.384276,-6661.808213,0.000000,0.000000
391-191309,0.000000,0.000000,0.000000,0.000000,-3813.370061,6622.329803
391-191310,0.000000,0.000000,-3857.695404,-6659.411468,0.000000,0.000000
391-191311,7688.091254,-22.882834,0.000000,0.000000,0.000000,0.000000
391-191318,7687.019048,-10.653330,0.000000,0.000000,0.000000,0.000000
391-191319,0.000000,0.000000,-3849.764889,-6657.991596,0.000000,0.000000
391-191320,0.000000,0.000000,0.000000,0.000000,-3817.147844,6619.097748
391-191327,0.000000,0.000000,-3854.055824,-6660.553625,0.000000,0.000000
391-191328,7689.505558,-15.846310,0.000000,0.000000,0.000000,0.000000
391-191329,0.000000,0.000000,0.000000,0.000000,-3816.753137,6622.117418
391-191333,0.000000,0.000000,0.000000,0.000000,-3814.707467,6623.025399
391-191344,0.000000,0.000000,0.000000,0.000000,-3815.501659,6623.292913
391-191354,7687.019048,-10.653330,0.000000,0.000000,0.000000,0.000000
391-191355,0.000000,0.000000,0.000000,0.000000,-3817.147844,6619.097748
391-191356,0.000000,0.000000,-3849.764889,-6657.991596,0.000000,0.000000
391-191357,0.000000,0.000000,0.000000,0.000000,-3814.707467,6623.025399
391-191358,7689.334371,-22.093746,0.000000,0.000000,0.000000,0.000000
391-191359,0.000000,0.000000,-3857.632166,-6660.911249,0.000000,0.000000
391-191382,0.000000,0.000000,-3857.695404,-6659.411468,0.000000,0.000000
391-191383,7688.091254,-22.882834,0.000000,0.000000,0.000000,0.000000
391-191384,0.000000,0.000000,0.000000,0.000000,-3813.370061,6622.329803
391-191391,0.000000,0.000000,0.000000,0.000000,-3813.370061,6622.329803
391-191392,0.000000,0.000000,-3857.695404,-6659.411468,0.000000,0.000000
391-191393,7688.091254,-22.882834,0.000000,0.000000,0.000000,0.000000
391-191396,7689.334371,-22.093746,-3857.632166,-6660.911249,-3814.707467,6623.025399
391-191399,7688.687917,-22.575360,-3857.727749,-6660.106025,-3813.946379,6622.698925
391-191419,7687.019048,-10.653330,0.000000,0.000000,0.000000,0.000000
391-191434,0.000000,0.000000,0.000000,0.000000,-3814.707467,6623.025399
391-191438,7688.091254,-22.882834,0.000000,0.000000,0.000000,0.000000
391-191458,7687.019048,-10.653330,0.000000,0.000000,0.000000,0.000000
391-191465,0.000000,0.000000,-3857.384276,-6661.808213,0.000000,0.000000
391-191469,0.000000,0.000000,0.000000,0.000000,-3816.753137,6622.117418
391-191470,0.000000,0.000000,-3854.055824,-6660.553625,0.000000,0.000000
391-191471,7689.505558,-15.846310,0.000000,0.000000,0.000000,0.000000
391-191487,0.000000,0.000000,-3854.055824,-6660.553625,0.000000,0.000000
391-191490,7689.922092,-17.267056,0.000000,0.000000,0.000000,0.000000
391-191502,7690.075351,-18.386951,0.000000,0.000000,0.000000,0.000000
391-191503,0.000000,0.000000,0.000000,0.000000,-3816.355729,6622.972762
391-191504,0.000000,0.000000,-3855.774384,-6661.368512,0.000000,0.000000
391-191511,0.000000,0.000000,0.000000,0.000000,-3814.707467,6623.025399
391-191543,0.000000,0.000000,-3855.383183,-6661.204801,0.000000,0.000000
391-191549,0.000000,0.000000,-3857.632166,-6660.911249,0.000000,0.000000
391-191551,0.000000,0.000000,-3851.694240,-6659.143572,0.000000,0.000000
391-191553,0.000000,0.000000,-3854.055824,-6660.553625,0.000000,0.000000
391-191576,0.000000,0.000000,0.000000,0.000000,-3815.501659,6623.292913
391-191578,0.000000,0.000000,0.000000,0.000000,-3816.355729,6622.972762
391-191580,0.000000,0.000000,0.000000,0.000000,-3813.370061,6622.329803
391-191581,7688.091254,-22.882834,0.000000,0.000000,0.000000,0.000000
391-191582,0.000000,0.000000,-3857.695404,-6659.411468,0.000000,0.000000
391-191605,0.000000,0.000000,0.000000,0.000000,-3814.707467,6623.025399
391-191639,0.000000,0.000000,0.000000,0.000000,-3814.707467,6623.025399
391-191676,7687.446051,-23.165854,0.000000,0.000000,0.000000,0.000000
391-191677,0.000000,0.000000,0.000000,0.000000,-3812.901407,6621.986681
391-191678,0.000000,0.000000,-3857.628160,-6658.795234,0.000000,0.000000
391-191713,0.000000,0.000000,0.000000,0.000000,-3814.707467,6623.025399
391-191718,0.000000,0.000000,-3857.384276,-6661.808213,0.000000,0.000000
391-191736,0.000000,0.000000,-3855.774384,-6661.368512,0.000000,0.000000
391-191743,0.000000,0.000000,-3849.764889,-6657.991596,0.000000,0.000000
391-191753,7690.142129,-18.874913,0.000000,0.000000,0.000000,0.000000
391-191754,0.000000,0.000000,-3856.079175,-6661.496062,0.000000,0.000000
391-191755,0.000000,0.000000,0.000000,0.000000,-3816.265981,6623.095853
391-191764,7689.334371,-22.093746,0.000000,0.000000,0.000000,0.000000
391-196024,0.000000,0.000000,0.000000,0.000000,-3815.501659,6623.292913
391-280180,0.000000,0.000000,-3857.727749,-6660.106025,0.000000,0.000000
391-280181,0.000000,0.000000,0.000000,0.000000,-3813.946379,6622.698925
391-280182,7688.687917,-22.575360,0.000000,0.000000,0.000000,0.000000
391-280186,0.000000,0.000000,0.000000,0.000000,-3813.946379,6622.698925
391-280187,7688.687917,-22.575360,0.000000,0.000000,0.000000,0.000000
391-280188,0.000000,0.000000,-3857.727749,-6660.106025,0.000000,0.000000
391-280192,7688.687917,-22.575360,0.000000,0.000000,0.000000,0.000000
391-280193,0.000000,0.000000,0.000000,0.000000,-3813.946379,6622.698925
391-280194,0.000000,0.000000,-3857.727749,-6660.106025,0.000000,0.000000
391-280195,0.000000,0.000000,0.000000,0.000000,-3813.946379,6622.698925
391-280196,7688.687917,-22.575360,0.000000,0.000000,0.000000,0.000000
391-280197,0.000000,0.000000,-3857.727749,-6660.106025,0.000000,0.000000
391-280201,7688.687917,-22.575360,0.000000,0.000000,0.000000,0.000000
391-280202,0.000000,0.000000,0.000000,0.000000,-3813.946379,6622.698925
391-280203,0.000000,0.000000,-3857.727749,-6660.106025,0.000000,0.000000
391-280204,0.000000,0.000000,0.000000,0.000000,-3813.946379,6622.698925
391-280205,7688.687917,-22.575360,0.000000,0.000000,0.000000,0.000000
391-280206,0.000000,0.000000,-3857.727749,-6660.106025,0.000000,0.000000
391-280207,0.000000,0.000000,0.000000,0.000000,-3813.946379,6622.698925
391-280208,7688.687917,-22.575360,0.000000,0.000000,0.000000,0.000000
391-280209,0.000000,0.000000,-3857.727749,-6660.106025,0.000000,0.000000
391-280222,7688.687917,-22.575360,0.000000,0.000000,0.000000,0.000000
391-280223,0.000000,0.000000,-3857.727749,-6660.106025,0.000000,0.000000
391-280224,0.000000,0.000000,0.000000,0.000000,-3813.946379,6622.698925
391-280228,7688.687917,-22.575360,0.000000,0.000000,0.000000,0.000000
391-280229,0.000000,0.000000,0.000000,0.000000,-3813.946379,6622.698925
391-280230,0.000000,0.000000,-3857.727749,-6660.106025,0.000000,0.000000
391-280234,0.000000,0.000000,0.000000,0.000000,-3813.946379,6622.698925
391-280235,0.000000,0.000000,-3857.727749,-6660.106025,0.000000,0.000000
391-280236,7688.687917,-22.575360,0.000000,0.000000,0.000000,0.000000
391-280246,0.000000,0.000000,0.000000,0.000000,-3813.946379,6622.698925
391-280247,0.000000,0.000000,-3857.727749,-6660.106025,0.000000,0.000000
391-280248,7688.687917,-22.575360,0.000000,0.000000,0.000000,0.000000
391-280255,7688.687917,-22.575360,0.000000,0.000000,0.000000,0.000000
391-280256,0.000000,0.000000,-3857.727749,-6660.106025,0.000000,0.000000
391-280257,0.000000,0.000000,0.000000,0.000000,-3813.946379,6622.698925
391-280267,7688.687917,-22.575360,0.000000,0.000000,0.000000,0.000000
391-280268,0.000000,0.000000,-3857.727749,-6660.106025,0.000000,0.000000
391-280269,0.000000,0.000000,0.000000,0.000000,-3813.946379,6622.698925
391-280270,0.000000,0.000000,0.000000,0.000000,-3813.946379,6622.698925
391-280271,0.000000,0.000000,-3857.727749,-6660.106025,0.000000,0.000000
391-280272,7688.687917,-22.575360,0.000000,0.000000,0.000000,0.000000
391-280273,0.000000,0.000000,-3857.727749,-6660.106025,0.000000,0.000000
391-280274,7688.687917,-22.575360,0.000000,0.000000,0.000000,0.000000
391-280275,0.000000,0.000000,0.000000,0.000000,-3813.946379,6622.698925
391-280285,7688.687917,-22.575360,0.000000,0.000000,0.000000,0.000000
391-280286,0.000000,0.000000,-3857.727749,-6660.106025,0.000000,0.000000
391-280287,0.000000,0.000000,0.000000,0.000000,-3813.946379,6622.698925
391-280291,0.000000,0.000000,-3857.727749,-6660.106025,0.000000,0.000000
391-280292,7688.687917,-22.575360,0.000000,0.000000,0.000000,0.000000
391-280293,0.000000,0.000000,0.000000,0.000000,-3813.946379,6622.698925
391-280294,0.000000,0.000000,0.000000,0.000000,-3813.946379,6622.698925
391-280295,7688.687917,-22.575360,0.000000,0.000000,0.000000,0.000000
391-280296,0.000000,0.000000,-3857.727749,-6660.106025,0.000000,0.000000
391-280306,0.000000,0.000000,-3857.727749,-6660.106025,0.000000,0.000000
391-280307,0.000000,0.000000,0.000000,0.000000,-3813.946379,6622.698925
391-280308,7688.687917,-22.575360,0.000000,0.000000,0.000000,0.000000
391-280312,0.000000,0.000000,-3857.727749,-6660.106025,0.000000,0.000000
391-280313,7688.687917,-22.575360,0.000000,0.000000,0.000000,0.000000
391-280314,0.000000,0.000000,0.000000,0.000000,-3813.946379,6622.698925
391-280315,7688.687917,-22.575360,0.000000,0.000000,0.000000,0.000000
391-280316,0.000000,0.000000,-3857.727749,-6660.106025,0.000000,0.000000
391-280317,0.000000,0.000000,0.000000,0.000000,-3813.946379,6622.698925
391-280327,0.000000,0.000000,0.000000,0.000000,-3813.946379,6622.698925
391-280328,7688.687917,-22.575360,0.000000,0.000000,0.000000,0.000000
391-280329,0.000000,0.000000,-3857.727749,-6660.106025,0.000000,0.000000
391-280330,7688.687917,-22.575360,0.000000,0.000000,0.000000,0.000000
391-280331,0.000000,0.000000,-3857.727749,-6660.106025,0.000000,0.000000
391-280332,0.000000,0.000000,0.000000,0.000000,-3813.946379,6622.698925
391-280333,7688.687917,-22.575360,0.000000,0.000000,0.000000,0.000000
391-280334,0.000000,0.000000,-3857.727749,-6660.106025,0.000000,0.000000
391-280335,0.000000,0.000000,0.000000,0.000000,-3813.946379,6622.698925
391-280336,7688.687917,-22.575360,0.000000,0.000000,0.000000,0.000000
391-280337,0.000000,0.000000,0.000000,0.000000,-3813.946379,6622.698925
391-280338,0.000000,0.000000,-3857.727749,-6660.106025,0.000000,0.000000
391-280351,0.000000,0.000000,0.000000,0.000000,-3813.946379,6622.698925
391-280352,7688.687917,-22.575360,0.000000,0.000000,0.000000,0.000000
391-280353,0.000000,0.000000,-3857.727749,-6660.106025,0.000000,0.000000
391-280363,0.000000,0.000000,0.000000,0.000000,-3813.946379,6622.698925
391-280364,0.000000,0.000000,-3857.727749,-6660.106025,0.000000,0.000000
...
MID-395-1456561,7688.687917,-22.575360,-3857.727749,-6660.106025,-3813.946379,6622.698925
MID-395-1456881,7688.687917,-22.575360,-3857.727749,-6660.106025,-3813.946379,6622.698925
MID-395-1525092,7688.687917,-22.575360,-3857.727749,-6660.106025,-3813.946379,6622.698925
MID-395-1525098,7688.687917,-22.575360,-3857.727749,-6660.106025,-3813.946379,6622.698925
MID-395-1800910,7689.334371,-22.093746,-3857.632166,-6660.911249,-3814.707467,6623.025399
MID-395-277251,7688.682468,-22.581919,-3857.730694,-6660.098055,-3813.937925,6622.697467
MID-395-277275,7689.328923,-22.100305,-3857.635111,-6660.903280,-3814.699013,6623.023942
MID-395-277286,7689.334371,-22.093746,-3857.632166,-6660.911249,-3814.707467,6623.025399
MID-395-926293,7688.687917,-22.575360,-3857.727749,-6660.106025,-3813.946379,6622.698925
Breaker_392-82614,7689.817106,-16.499900,-3854.595695,-6660.875251,-3816.702805,6622.496746
Breaker_392-88054,7689.952985,-21.548803,-3857.469009,-6661.718391,-3815.501855,6623.292183
Breaker_392-93494,7689.953515,-21.549336,-3857.469734,-6661.718584,-3815.501659,6623.292913
Breaker_416-69801,7969.995768,-0.000425,-3984.999453,-6902.218904,-3984.997227,6902.220223
Fuse_402-1262950,7689.976740,-21.461756,0.000000,0.000000,0.000000,0.000000
Fuse_402-1339159,7690.142129,-18.874913,-3856.079175,-6661.496062,-3816.265981,6623.095853
Fuse_402-1390342,7689.942854,-21.581667,-3857.492240,-6661.693072,-3815.467899,6623.299881
Fuse_402-1397702,7689.922092,-17.267056,0.000000,0.000000,0.000000,0.000000
Fuse_402-1397704,7690.075351,-18.386951,-3855.774384,-6661.368512,-3816.355729,6622.972762
Fuse_402-1397705,7689.953515,-21.549336,-3857.469734,-6661.718584,-3815.501659,6623.292913
Fuse_402-1397706,7689.989641,-17.760649,-3855.383183,-6661.204801,-3816.470922,6622.814775
Fuse_402-158806,0.000000,0.000000,-3851.694240,-6659.143572,0.000000,0.000000
Fuse_402-158808,7685.086471,-6.617221,-3846.429871,-6656.000326,-3817.454620,6616.750787
Fuse_402-158810,7687.019048,-10.653330,-3849.764889,-6657.991596,-3817.147844,6619.097748
Fuse_402-158814,7689.505558,-15.846310,-3854.055824,-6660.553625,-3816.753137,6622.117418
Fuse_402-158821,0.000000,0.000000,-3851.694240,-6659.143572,0.000000,0.000000
Fuse_402-158825,7690.075351,-18.386951,-3855.774384,-6661.368512,-3816.355729,6622.972762
Fuse_402-158826,7689.922092,-17.267056,0.000000,0.000000,0.000000,0.000000
Fuse_402-167773,7690.142129,-18.874913,-3856.079175,-6661.496062,-3816.265981,6623.095853
Fuse_402-462222,7689.987766,-21.430201,-3857.384276,-6661.808213,-3815.623492,6623.262845
Fuse_402-463500,7689.992710,-21.410976,-3857.370811,-6661.822334,-3815.642687,6623.258108
Fuse_402-700342,7688.706654,-14.177831,-3852.677168,-6659.730458,-3816.879955,6621.147213
Reg_TUR117,7681.921657,-0.002826,-3840.964893,-6652.738980,-3817.958797,6612.905878
SCZ_395-1298762,7688.687917,-22.575360,0.000000,0.000000,0.000000,0.000000
SCZ_395-1298763,0.000000,0.000000,-3857.727749,-6660.106025,0.000000,0.000000
SCZ_395-1299708,0.000000,0.000000,0.000000,0.000000,-3813.946379,6622.698925
SCZ_395-1309629,7688.706654,-14.177831,0.000000,0.000000,0.000000,0.000000
SCZ_395-1325949,0.000000,0.000000,-3852.677168,-6659.730458,0.000000,0.000000
SCZ_395-1356045,7688.706654,-14.177831,0.000000,0.000000,0.000000,0.000000
SCZ_395-1529841,0.000000,0.000000,-3855.774384,-6661.368512,0.000000,0.000000
SCZ_395-281100,7689.334371,-22.093746,0.000000,0.000000,0.000000,0.000000
SCZ_395-281102,0.000000,0.000000,-3857.632166,-6660.911249,0.000000,0.000000
SCZ_395-281104,0.000000,0.000000,0.000000,0.000000,-3814.707467,6623.025399
SCZ_395-369378,7687.019048,-10.653330,0.000000,0.000000,0.000000,0.000000
SCZ_395-369379,0.000000,0.000000,-3849.764889,-6657.991596,0.000000,0.000000
SCZ_395-369380,0.000000,0.000000,0.000000,0.000000,-3817.147844,6619.097748
SCZ_395-716649,0.000000,0.000000,-3857.384276,-6661.808213,0.000000,0.000000
SCZ_395-717247,0.000000,0.000000,0.000000,0.000000,-3814.707467,6623.025399
SCZ_395-919894,7688.687917,-22.575360,0.000000,0.000000,0.000000,0.000000
SCZ_395-919895,0.000000,0.000000,-3857.727749,-6660.106025,0.000000,0.000000
SCZ_395-919896,0.000000,0.000000,0.000000,0.000000,-3813.946379,6622.698925
SW_416-69801,7681.963982,-0.096024,-3841.041436,-6652.783002,-3817.950283,6612.958771
391-1224580,7863.095551,-92.676794,0.000000,0.000000,0.000000,0.000000
391-1224582,0.000000,0.000000,0.000000,0.000000,-3851.287318,6855.978896
391-1224583,0.000000,0.000000,-4011.808233,-6763.302103,0.000000,0.000000
391-1224584,7863.095551,-92.676794,0.000000,0.000000,0.000000,0.000000
391-1224586,0.000000,0.000000,0.000000,0.000000,-3851.287318,6855.978896
391-1224587,0.000000,0.000000,-4011.808233,-6763.302103,0.000000,0.000000
391-1265844,7863.095551,-92.676794,0.000000,0.000000,0.000000,0.000000
391-1265845,0.000000,0.000000,0.000000,0.000000,-3851.287318,6855.978896
391-1265846,0.000000,0.000000,-4011.808233,-6763.302103,0.000000,0.000000
391-1314804,0.000000,0.000000,0.000000,0.000000,-3851.287318,6855.978896
391-1314805,0.000000,0.000000,-4011.808233,-6763.302103,0.000000,0.000000
391-1314806,7863.095551,-92.676794,0.000000,0.000000,0.000000,0.000000
391-1314807,0.000000,0.000000,0.000000,0.000000,-3851.287318,6855.978896
391-1314809,7863.095551,-92.676794,0.000000,0.000000,0.000000,0.000000
391-1314810,0.000000,0.000000,-4011.808233,-6763.302103,0.000000,0.000000
391-1314812,7863.095551,-92.676794,0.000000,0.000000,0.000000,0.000000
391-1314813,0.000000,0.000000,-4011.808233,-6763.302103,0.000000,0.000000
391-1314814,0.000000,0.000000,0.000000,0.000000,-3851.287318,6855.978896
391-1635536,7863.095551,-92.676794,0.000000,0.000000,0.000000,0.000000
391-1635537,0.000000,0.000000,-4011.808233,-6763.302103,0.000000,0.000000
391-1635538,0.000000,0.000000,0.000000,0.000000,-3851.287318,6855.978896
391-1635556,7863.095551,-92.676794,0.000000,0.000000,0.000000,0.000000
391-1635557,0.000000,0.000000,-4011.808233,-6763.302103,0.000000,0.000000
391-1635558,0.000000,0.000000,0.000000,0.000000,-3851.287318,6855.978896
391-1636166,0.000000,0.000000,-4011.808233,-6763.302103,0.000000,0.000000
391-1731911,7863.095551,-92.676794,0.000000,0.000000,0.000000,0.000000
391-1731912,0.000000,0.000000,-4011.808233,-6763.302103,0.000000,0.000000
391-1731913,0.000000,0.000000,0.000000,0.000000,-3851.287318,6855.978896
391-1731914,7863.095551,-92.676794,0.000000,0.000000,0.000000,0.000000
391-1731915,0.000000,0.000000,-4011.808233,-6763.302103,0.000000,0.000000
391-1731916,0.000000,0.000000,0.000000,0.000000,-3851.287318,6855.978896
391-559608,7863.095551,-92.676794,-4011.808233,-6763.302103,-3851.287318,6855.978896
391-559612,7863.095551,-92.676794,-4011.808233,-6763.302103,-3851.287318,6855.978896
391-559613,7863.095551,-92.676794,-4011.808233,-6763.302103,-3851.287318,6855.978896
391-559617,7863.095551,-92.676794,-4011.808233,-6763.302103,-3851.287318,6855.978896
391-559619,0.000000,0.000000,-4011.808233,-6763.302103,0.000000,0.000000
391-559908,7863.095551,-92.676794,0.000000,0.000000,0.000000,0.000000
391-559909,0.000000,0.000000,0.000000,0.000000,-3851.287318,6855.978896
391-560545,0.000000,0.000000,0.000000,0.000000,-3851.287318,6855.978896
391-560546,0.000000,0.000000,-4011.808233,-6763.302103,0.000000,0.000000
391-560547,7863.095551,-92.676794,0.000000,0.000000,0.000000,0.000000
391-560852,0.000000,0.000000,0.000000,0.000000,-3851.287318,6855.978896
391-560853,7863.095551,-92.676794,0.000000,0.000000,0.000000,0.000000
391-560854,0.000000,0.000000,-4011.808233,-6763.302103,0.000000,0.000000
391-560855,0.000000,0.000000,0.000000,0.000000,-3851.287318,6855.978896
391-560856,7863.095551,-92.676794,0.000000,0.000000,0.000000,0.000000
391-560857,0.000000,0.000000,-4011.808233,-6763.302103,0.000000,0.000000
391-560858,7863.095551,-92.676794,0.000000,0.000000,0.000000,0.000000
391-560859,0.000000,0.000000,-4011.808233,-6763.302103,0.000000,0.000000
391-560860,0.000000,0.000000,0.000000,0.000000,-3851.287318,6855.978896
391-560861,0.000000,0.000000,-4011.808233,-6763.302103,0.000000,0.000000
391-560862,0.000000,0.000000,0.000000,0.000000,-3851.287318,6855.978896
391-560863,7863.095551,-92.676794,0.000000,0.000000,0.000000,0.000000
391-560864,0.000000,0.000000,0.000000,0.000000,-3851.287318,6855.978896
391-560865,7863.095551,-92.676794,0.000000,0.000000,0.000000,0.000000
391-560866,0.000000,0.000000,-4011.808233,-6763.302103,0.000000,0.000000
391-560867,0.000000,0.000000,0.000000,0.000000,-3851.287318,6855.978896
391-560868,7863.095551,-92.676794,0.000000,0.000000,0.000000,0.000000
391-560869,0.000000,0.000000,-4011.808233,-6763.302103,0.000000,0.000000
391-560870,0.000000,0.000000,0.000000,0.000000,-3851.287318,6855.978896
391-560871,7863.095551,-92.676794,0.000000,0.000000,0.000000,0.000000
391-560872,0.000000,0.000000,-4011.808233,-6763.302103,0.000000,0.000000
391-560873,0.000000,0.000000,0.000000,0.000000,-3851.287318,6855.978896
391-560874,0.000000,0.000000,-4011.808233,-6763.302103,0.000000,0.000000
391-560875,7863.095551,-92.676794,0.000000,0.000000,0.000000,0.000000
391-560876,0.000000,0.000000,-4011.808233,-6763.302103,0.000000,0.000000
391-560877,7863.095551,-92.676794,0.000000,0.000000,0.000000,0.000000
391-560878,0.000000,0.000000,0.000000,0.000000,-3851.287318,6855.978896
391-560880,7863.095551,-92.676794,-4011.808233,-6763.302103,-3851.287318,6855.978896
391-560882,0.000000,0.000000,0.000000,0.000000,-3851.287318,6855.978896
391-560883,0.000000,0.000000,-4011.808233,-6763.302103,0.000000,0.000000
391-560884,7863.095551,-92.676794,0.000000,0.000000,0.000000,0.000000
391-560885,0.000000,0.000000,-4011.808233,-6763.302103,0.000000,0.000000
391-560886,7863.095551,-92.676794,0.000000,0.000000,0.000000,0.000000
391-560887,0.000000,0.000000,0.000000,0.000000,-3851.287318,6855.978896
391-560888,7863.095551,-92.676794,0.000000,0.000000,0.000000,0.000000
391-560889,0.000000,0.000000,0.000000,0.000000,-3851.287318,6855.978896
391-560890,0.000000,0.000000,-4011.808233,-6763.302103,0.000000,0.000000
391-560893,7863.095551,-92.676794,-4011.808233,-6763.302103,-3851.287318,6855.978896
391-560896,7863.095551,-92.676794,-4011.808233,-6763.302103,-3851.287318,6855.978896
391-560897,0.000000,0.000000,-4011.808233,-6763.302103,0.000000,0.000000
391-560898,7863.095551,-92.676794,0.000000,0.000000,0.000000,0.000000
391-560899,0.000000,0.000000,0.000000,0.000000,-3851.287318,6855.978896
391-560900,0.000000,0.000000,-4011.808233,-6763.302103,0.000000,0.000000
391-560901,0.000000,0.000000,0.000000,0.000000,-3851.287318,6855.978896
391-560902,7863.095551,-92.676794,0.000000,0.000000,0.000000,0.000000
391-560903,0.000000,0.000000,0.000000,0.000000,-3851.287318,6855.978896
391-560904,0.000000,0.000000,-4011.808233,-6763.302103,0.000000,0.000000
391-560906,7863.095551,-92.676794,0.000000,0.000000,0.000000,0.000000
391-560907,0.000000,0.000000,0.000000,0.000000,-3851.287318,6855.978896
391-560909,0.000000,0.000000,-4011.808233,-6763.302103,0.000000,0.000000
391-560910,7863.095551,-92.676794,0.000000,0.000000,0.000000,0.000000
391-560939,0.000000,0.000000,0.000000,0.000000,-3851.287318,6855.978896
391-560941,7863.095551,-92.676794,0.000000,0.000000,0.000000,0.000000
391-560942,0.000000,0.000000,-4011.808233,-6763.302103,0.000000,0.000000
391-560944,7863.095551,-92.676794,0.000000,0.000000,0.000000,0.000000
391-560945,0.000000,0.000000,0.000000,0.000000,-3851.287318,6855.978896
391-560946,0.000000,0.000000,-4011.808233,-6763.302103,0.000000,0.000000
391-561172,2478.066208,-29.207229,-1264.327306,-2131.464674,-1213.738902,2160.671902
391-561179,2478.066208,-29.207229,-1264.327306,-2131.464674,-1213.738902,2160.671902
391-561181,7863.095551,-92.676794,0.000000,0.000000,0.000000,0.000000
391-561182,0.000000,0.000000,-4011.808233,-6763.302103,0.000000,0.000000
391-561183,0.000000,0.000000,0.000000,0.000000,-3851.287318,6855.978896
391-561185,0.000000,0.000000,-4011.808233,-6763.302103,0.000000,0.000000
391-561186,7863.095551,-92.676794,0.000000,0.000000,0.000000,0.000000
391-561187,0.000000,0.000000,0.000000,0.000000,-3851.287318,6855.978896
391-561189,0.000000,0.000000,-4011.808233,-6763.302103,0.000000,0.000000
391-561190,7863.095551,-92.676794,0.000000,0.000000,0.000000,0.000000
391-561191,0.000000,0.000000,0.000000,0.000000,-3851.287318,6855.978896
391-561192,0.000000,0.000000,-4011.808233,-6763.302103,0.000000,0.000000
391-561193,0.000000,0.000000,0.000000,0.000000,-3851.287318,6855.978896
391-561194,7863.095551,-92.676794,0.000000,0.000000,0.000000,0.000000
391-561196,0.000000,0.000000,0.000000,0.000000,-3851.287318,6855.978896
391-561197,0.000000,0.000000,-4011.808233,-6763.302103,0.000000,0.000000
391-561199,7863.095551,-92.676794,0.000000,0.000000,0.000000,0.000000
391-561201,0.000000,0.000000,-4011.808233,-6763.302103,0.000000,0.000000
391-561202,0.000000,0.000000,0.000000,0.000000,-3851.287318,6855.978896
391-561203,7863.095551,-92.676794,0.000000,0.000000,0.000000,0.000000
391-561221,0.000000,0.000000,0.000000,0.000000,-3851.287318,6855.978896
391-561222,7863.095551,-92.676794,0.000000,0.000000,0.000000,0.000000
391-561223,0.000000,0.000000,-4011.808233,-6763.302103,0.000000,0.000000
391-561225,2478.066208,-29.207229,-1264.327306,-2131.464674,-1213.738902,2160.671902
391-561228,0.000000,0.000000,0.000000,0.000000,-3851.287318,6855.978896
391-561230,7863.095551,-92.676794,0.000000,0.000000,0.000000,0.000000
391-561231,0.000000,0.000000,-4011.808233,-6763.302103,0.000000,0.000000
391-670932,0.000000,0.000000,-4011.808233,-6763.302103,0.000000,0.000000
391-670933,7863.095551,-92.676794,0.000000,0.000000,0.000000,0.000000
391-670934,0.000000,0.000000,0.000000,0.000000,-3851.287318,6855.978896
391-675096,0.000000,0.000000,0.000000,0.000000,-3851.287318,6855.978896
391-675097,0.000000,0.000000,-4011.808233,-6763.302103,0.000000,0.000000
391-675098,7863.095551,-92.676794,0.000000,0.000000,0.000000,0.000000
391-675100,0.000000,0.000000,0.000000,0.000000,-3851.287318,6855.978896
391-675102,0.000000,0.000000,-4011.808233,-6763.302103,0.000000,0.000000
391-675103,7863.095551,-92.676794,0.000000,0.000000,0.000000,0.000000
392-91895,7867.016785,-87.699100,-4009.458040,-6769.186839,-3857.558745,6856.885937
393-26254,7866.406946,-89.079679,-4010.348737,-6767.968413,-3856.058209,6857.048090
395-2135214,7863.095551,-92.676794,0.000000,0.000000,0.000000,0.000000
395-2135216,0.000000,0.000000,-4011.808233,-6763.302103,0.000000,0.000000
395-2135218,0.000000,0.000000,0.000000,0.000000,-3851.287318,6855.978896
395-2135220,7863.095551,-92.676794,0.000000,0.000000,0.000000,0.000000
395-2135222,0.000000,0.000000,-4011.808233,-6763.302103,0.000000,0.000000
395-2135224,0.000000,0.000000,0.000000,0.000000,-3851.287318,6855.978896
395-757001,7863.095551,-92.676794,0.000000,0.000000,0.000000,0.000000
395-757002,7863.095551,-92.676794,-4011.808233,-6763.302103,-3851.287318,6855.978896
395-757003,0.000000,0.000000,-4011.808233,-6763.302103,0.000000,0.000000
395-757245,0.000000,0.000000,0.000000,0.000000,-3851.287318,6855.978896
395-757247,7863.095551,-92.676794,0.000000,0.000000,0.000000,0.000000
395-757248,7863.095551,-92.676794,-4011.808233,-6763.302103,-3851.287318,6855.978896
395-757249,0.000000,0.000000,-4011.808233,-6763.302103,0.000000,0.000000
395-757251,0.000000,0.000000,0.000000,0.000000,-3851.287318,6855.978896
395-757253,7863.095551,-92.676794,0.000000,0.000000,0.000000,0.000000
395-757254,7863.095551,-92.676794,-4011.808233,-6763.302103,-3851.287318,6855.978896
395-757255,0.000000,0.000000,-4011.808233,-6763.302103,0.000000,0.000000
395-757257,0.000000,0.000000,0.000000,0.000000,-3851.287318,6855.978896
395-757258,7863.095551,-92.676794,0.000000,0.000000,0.000000,0.000000
395-757260,0.000000,0.000000,-4011.808233,-6763.302103,0.000000,0.000000
395-757262,0.000000,0.000000,0.000000,0.000000,-3851.287318,6855.978896
395-758542,7863.095551,-92.676794,0.000000,0.000000,0.000000,0.000000
395-758543,7863.095551,-92.676794,-4011.808233,-6763.302103,-3851.287318,6855.978896
395-758544,0.000000,0.000000,-4011.808233,-6763.302103,0.000000,0.000000
395-758546,0.000000,0.000000,0.000000,0.000000,-3851.287318,6855.978896
395-758929,7863.095551,-92.676794,0.000000,0.000000,0.000000,0.000000
395-758931,0.000000,0.000000,-4011.808233,-6763.302103,0.000000,0.000000
395-758933,0.000000,0.000000,0.000000,0.000000,-3851.287318,6855.978896
395-758966,7863.095551,-92.676794,0.000000,0.000000,0.000000,0.000000
395-758968,0.000000,0.000000,-4011.808233,-6763.302103,0.000000,0.000000
395-758970,0.000000,0.000000,0.000000,0.000000,-3851.287318,6855.978896
395-758971,7863.095551,-92.676794,0.000000,0.000000,0.000000,0.000000
395-758973,0.000000,0.000000,-4011.808233,-6763.302103,0.000000,0.000000
395-758975,0.000000,0.000000,0.000000,0.000000,-3851.287318,6855.978896
395-758983,7863.095551,-92.676794,0.000000,0.000000,0.000000,0.000000
395-758985,0.000000,0.000000,-4011.808233,-6763.302103,0.000000,0.000000
395-758987,0.000000,0.000000,0.000000,0.000000,-3851.287318,6855.978896
395-758995,7863.095551,-92.676794,0.000000,0.000000,0.000000,0.000000
395-758997,0.000000,0.000000,-4011.808233,-6763.302103,0.000000,0.000000
395-758999,0.000000,0.000000,0.000000,0.000000,-3851.287318,6855.978896
395-759007,7863.095551,-92.676794,0.000000,0.000000,0.000000,0.000000
395-759009,0.000000,0.000000,-4011.808233,-6763.302103,0.000000,0.000000
395-759010,7863.095551,-92.676794,-4011.808233,-6763.302103,-3851.287318,6855.978896
395-759011,0.000000,0.000000,0.000000,0.000000,-3851.287318,6855.978896
395-759013,7863.095551,-92.676794,0.000000,0.000000,0.000000,0.000000
395-759014,7863.095551,-92.676794,0.000000,0.000000,0.000000,0.000000
395-759015,0.000000,0.000000,-4011.808233,-6763.302103,0.000000,0.000000
395-759016,0.000000,0.000000,-4011.808233,-6763.302103,0.000000,0.000000
395-759017,0.000000,0.000000,0.000000,0.000000,-3851.287318,6855.978896
395-759018,0.000000,0.000000,0.000000,0.000000,-3851.287318,6855.978896
395-759020,7863.095551,-92.676794,-4011.808233,-6763.302103,-3851.287318,6855.978896
395-759032,7863.095551,-92.676794,0.000000,0.000000,0.000000,0.000000
395-759034,0.000000,0.000000,-4011.808233,-6763.302103,0.000000,0.000000
395-759036,0.000000,0.000000,0.000000,0.000000,-3851.287318,6855.978896
395-759507,7863.095551,-92.676794,-4011.808233,-6763.302103,-3851.287318,6855.978896
395-759513,7863.095551,-92.676794,-4011.808233,-6763.302103,-3851.287318,6855.978896
395-759529,7863.095551,-92.676794,0.000000,0.000000,0.000000,0.000000
395-759530,0.000000,0.000000,-4011.808233,-6763.302103,0.000000,0.000000
395-759531,0.000000,0.000000,0.000000,0.000000,-3851.287318,6855.978896
395-759558,7863.095551,-92.676794,0.000000,0.000000,0.000000,0.000000
395-759559,0.000000,0.000000,-4011.808233,-6763.302103,0.000000,0.000000
395-759560,0.000000,0.000000,0.000000,0.000000,-3851.287318,6855.978896
395-759820,7863.095551,-92.676794,0.000000,0.000000,0.000000,0.000000
395-759821,0.000000,0.000000,-4011.808233,-6763.302103,0.000000,0.000000
...
MID-395-2135216,7863.095551,-92.676794,-4011.808233,-6763.302103,-3851.287318,6855.978896
MID-395-2135222,7863.095551,-92.676794,-4011.808233,-6763.302103,-3851.287318,6855.978896
MID-395-757003,7863.095551,-92.676794,-4011.808233,-6763.302103,-3851.287318,6855.978896
MID-395-757249,7863.095551,-92.676794,-4011.808233,-6763.302103,-3851.287318,6855.978896
MID-395-757255,7863.095551,-92.676794,-4011.808233,-6763.302103,-3851.287318,6855.978896
MID-395-757260,7863.095551,-92.676794,-4011.808233,-6763.302103,-3851.287318,6855.978896
MID-395-758544,7863.095551,-92.676794,-4011.808233,-6763.302103,-3851.287318,6855.978896
MID-395-758968,7863.095551,-92.676794,-4011.808233,-6763.302103,-3851.287318,6855.978896
MID-395-758973,7863.095551,-92.676794,-4011.808233,-6763.302103,-3851.287318,6855.978896
MID-395-758997,7863.095551,-92.676794,-4011.808233,-6763.302103,-3851.287318,6855.978896
MID-395-759009,7863.095551,-92.676794,-4011.808233,-6763.302103,-3851.287318,6855.978896
MID-395-759015,7863.095551,-92.676794,-4011.808233,-6763.302103,-3851.287318,6855.978896
MID-395-759016,7863.095551,-92.676794,-4011.808233,-6763.302103,-3851.287318,6855.978896
MID-395-759034,7863.095551,-92.676794,-4011.808233,-6763.302103,-3851.287318,6855.978896
MID-395-759530,7863.095551,-92.676794,-4011.808233,-6763.302103,-3851.287318,6855.978896
MID-395-759559,7863.095551,-92.676794,-4011.808233,-6763.302103,-3851.287318,6855.978896
MID-395-759821,7863.095551,-92.676794,-4011.808233,-6763.302103,-3851.287318,6855.978896
Breaker_392-91895,7874.140650,-75.895819,-4002.798032,-6781.257927,-3871.342618,6857.153745
Breaker_416-69802,7969.985392,0.025343,-3984.970748,-6902.222489,-3985.014644,6902.197146
Reg_TUR111,7920.462277,0.030587,-3960.204649,-6859.336835,-3960.257628,6859.306248
SCZ_395-2135221,7992.983558,26.114991,0.000000,0.000000,0.000000,0.000000
SCZ_395-2135223,0.000000,0.000000,-3973.880312,-6935.164843,0.000000,0.000000
SCZ_395-2135225,0.000000,0.000000,0.000000,0.000000,-4019.113931,6909.070201
SCZ_395-758929,7863.095551,-92.676794,0.000000,0.000000,0.000000,0.000000
SCZ_395-758931,0.000000,0.000000,-4011.808233,-6763.302103,0.000000,0.000000
SCZ_395-758933,0.000000,0.000000,0.000000,0.000000,-3851.287318,6855.978896
SCZ_395-758983,7863.095551,-92.676794,0.000000,0.000000,0.000000,0.000000
SCZ_395-758985,0.000000,0.000000,-4011.808233,-6763.302103,0.000000,0.000000
SCZ_395-758987,0.000000,0.000000,0.000000,0.000000,-3851.287318,6855.978896
SCZ_395-759014,7863.095551,-92.676794,0.000000,0.000000,0.000000,0.000000
SCZ_395-759016,0.000000,0.000000,-4011.808233,-6763.302103,0.000000,0.000000
SCZ_395-759018,0.000000,0.000000,0.000000,0.000000,-3851.287318,6855.978896
SCZ_403-665137,0.000000,0.000000,0.000000,0.000000,-3856.058209,6857.048090
SW_406-1032405,7863.095551,-92.676794,-4011.808233,-6763.302103,-3851.287318,6855.978896
SW_416-69802,7920.120957,-0.510006,-3960.502157,-6858.770946,-3959.618800,6859.280953
Xfmr_391-561172,2478.066208,-29.207229,-1264.327306,-2131.464674,-1213.738902,2160.671902
Xfmr_391-561179,2478.066208,-29.207229,-1264.327306,-2131.464674,-1213.738902,2160.671902
Xfmr_391-561225,2478.066208,-29.207229,-1264.327306,-2131.464674,-1213.738902,2160.671902
391-1079290,7729.549817,-58.696439,0.000000,0.000000,0.000000,0.000000
391-1095639,7729.549817,-58.696439,0.000000,0.000000,0.000000,0.000000
391-1095640,0.000000,0.000000,0.000000,0.000000,-3815.760884,6724.721158
391-1095641,0.000000,0.000000,-3915.791625,-6667.530252,0.000000,0.000000
391-1100740,0.000000,0.000000,0.000000,0.000000,-3883.139198,6763.318445
391-1100741,7799.003425,-18.521361,0.000000,0.000000,0.000000,0.000000
391-1100742,0.000000,0.000000,-3915.542939,-6745.117999,0.000000,0.000000
391-1102353,0.000000,0.000000,-3915.542939,-6745.117999,0.000000,0.000000
391-1102355,0.000000,0.000000,0.000000,0.000000,-3883.139198,6763.318445
391-1102644,7799.003425,-18.521361,0.000000,0.000000,0.000000,0.000000
391-1173780,7799.003425,-18.521361,0.000000,0.000000,0.000000,0.000000
391-1173781,0.000000,0.000000,0.000000,0.000000,-3883.139198,6763.318445
391-1173782,0.000000,0.000000,-3915.542939,-6745.117999,0.000000,0.000000
391-1173783,7799.003425,-18.521361,0.000000,0.000000,0.000000,0.000000
391-1173784,0.000000,0.000000,-3915.542939,-6745.117999,0.000000,0.000000
391-1173785,0.000000,0.000000,0.000000,0.000000,-3883.139198,6763.318445
391-1179828,0.000000,0.000000,-3915.542939,-6745.117999,0.000000,0.000000
391-1179829,0.000000,0.000000,0.000000,0.000000,-3883.139198,6763.318445
391-1179831,7799.003425,-18.521361,0.000000,0.000000,0.000000,0.000000
391-1182200,0.000000,0.000000,-3915.542939,-6745.117999,0.000000,0.000000
391-1182202,7799.003425,-18.521361,0.000000,0.000000,0.000000,0.000000
391-1182203,0.000000,0.000000,0.000000,0.000000,-3883.139198,6763.318445
391-1323796,7773.781718,-30.889029,0.000000,0.000000,0.000000,0.000000
391-1323797,0.000000,0.000000,0.000000,0.000000,-3860.709033,6748.375362
391-1323798,0.000000,0.000000,-3913.825159,-6718.427609,0.000000,0.000000
391-1323799,0.000000,0.000000,0.000000,0.000000,-3852.524727,6742.296739
391-1323800,7763.812401,-35.201328,0.000000,0.000000,0.000000,0.000000
391-1323801,0.000000,0.000000,-3912.632105,-6708.116027,0.000000,0.000000
391-1323802,0.000000,0.000000,-3913.014760,-6703.060884,0.000000,0.000000
391-1323803,7759.598268,-38.078155,0.000000,0.000000,0.000000,0.000000
391-1323804,0.000000,0.000000,0.000000,0.000000,-3848.020020,6740.131357
391-1323805,7754.790587,-41.360174,0.000000,0.000000,0.000000,0.000000
391-1323806,0.000000,0.000000,-3913.460835,-6697.167924,0.000000,0.000000
391-1323807,0.000000,0.000000,0.000000,0.000000,-3842.740606,6737.593578
391-1323808,7752.166558,-43.151499,0.000000,0.000000,0.000000,0.000000
391-1323809,0.000000,0.000000,0.000000,0.000000,-3839.792749,6736.176563
391-1323810,0.000000,0.000000,-3913.689364,-6694.148893,0.000000,0.000000
391-1323811,7748.444249,-45.692576,0.000000,0.000000,0.000000,0.000000
391-1323812,0.000000,0.000000,-3914.020411,-6689.775526,0.000000,0.000000
391-1323813,0.000000,0.000000,0.000000,0.000000,-3835.882921,6734.297135
391-1323814,7742.330486,-49.866208,0.000000,0.000000,0.000000,0.000000
391-1323815,0.000000,0.000000,0.000000,0.000000,-3829.406506,6731.183966
391-1323816,0.000000,0.000000,-3914.560328,-6682.642842,0.000000,0.000000
391-1323820,0.000000,0.000000,0.000000,0.000000,-3823.736160,6728.511866
391-1323821,0.000000,0.000000,-3915.085336,-6676.347280,0.000000,0.000000
391-1323822,7736.984357,-53.574282,0.000000,0.000000,0.000000,0.000000
391-1323823,7799.003425,-18.521361,-3915.542939,-6745.117999,-3883.139198,6763.318445
391-1323826,0.000000,0.000000,-3913.780588,-6768.079810,0.000000,0.000000
391-1323827,7818.338376,-5.292893,0.000000,0.000000,0.000000,0.000000
391-1323828,7729.549817,-58.696439,0.000000,0.000000,0.000000,0.000000
391-1323829,0.000000,0.000000,-3915.791625,-6667.530252,0.000000,0.000000
391-1323830,0.000000,0.000000,0.000000,0.000000,-3815.760884,6724.721158
391-1323831,0.000000,0.000000,0.000000,0.000000,-3815.760884,6724.721158
391-1323832,0.000000,0.000000,-3915.791625,-6667.530252,0.000000,0.000000
391-1323833,7729.549817,-58.696439,0.000000,0.000000,0.000000,0.000000
391-1323836,7729.549817,-58.696439,-3915.791625,-6667.530252,-3815.760884,6724.721158
391-1323837,0.000000,0.000000,0.000000,0.000000,-3815.760884,6724.721158
391-1323838,7729.549817,-58.696439,0.000000,0.000000,0.000000,0.000000
391-1323839,0.000000,0.000000,-3915.791625,-6667.530252,0.000000,0.000000
391-1323840,0.000000,0.000000,0.000000,0.000000,-3815.760884,6724.721158
391-1323841,0.000000,0.000000,-3915.791625,-6667.530252,0.000000,0.000000
391-1323842,7729.549817,-58.696439,0.000000,0.000000,0.000000,0.000000
391-1323843,7729.549817,-58.696439,0.000000,0.000000,0.000000,0.000000
391-1323844,0.000000,0.000000,0.000000,0.000000,-3904.008404,6773.323334
391-1323876,0.000000,0.000000,-3915.791625,-6667.530252,0.000000,0.000000
391-1323877,0.000000,0.000000,0.000000,0.000000,-3815.760884,6724.721158
391-1323879,7729.549817,-58.696439,0.000000,0.000000,0.000000,0.000000
391-1323881,0.000000,0.000000,0.000000,0.000000,-3815.760884,6724.721158
391-1323882,0.000000,0.000000,-3915.791625,-6667.530252,0.000000,0.000000
391-1323884,7729.549817,-58.696439,0.000000,0.000000,0.000000,0.000000
391-1323885,0.000000,0.000000,0.000000,0.000000,-3815.760884,6724.721158
391-1323886,0.000000,0.000000,-3915.791625,-6667.530252,0.000000,0.000000
391-1324404,0.000000,0.000000,0.000000,0.000000,-3819.935405,6726.684869
391-1324405,0.000000,0.000000,-3915.409287,-6672.067657,0.000000,0.000000
391-1324406,7733.406371,-56.016836,0.000000,0.000000,0.000000,0.000000
391-1324412,7730.849755,-57.791378,-3915.657083,-6669.114188,-3817.225384,6725.408979
391-1326356,0.000000,0.000000,-3913.910571,-6766.362651,0.000000,0.000000
391-1326357,0.000000,0.000000,0.000000,0.000000,-3902.617866,6772.654911
391-1326358,7816.703432,-6.409007,0.000000,0.000000,0.000000,0.000000
391-1326359,0.000000,0.000000,-3914.445267,-6759.298932,0.000000,0.000000
391-1326360,7810.728972,-10.487541,0.000000,0.000000,0.000000,0.000000
391-1326361,0.000000,0.000000,0.000000,0.000000,-3896.011607,6769.479327
391-1326362,0.000000,0.000000,-3914.956842,-6752.540675,0.000000,0.000000
391-1326363,7805.273655,-14.211677,0.000000,0.000000,0.000000,0.000000
391-1326364,0.000000,0.000000,0.000000,0.000000,-3889.683261,6766.437333
391-1326368,0.000000,0.000000,0.000000,0.000000,-3906.395646,6774.470865
391-1326369,7820.341987,-3.925104,0.000000,0.000000,0.000000,0.000000
391-1326370,0.000000,0.000000,-3913.592215,-6770.568346,0.000000,0.000000
391-1332457,7729.549817,-58.696439,-3915.791625,-6667.530252,-3815.760884,6724.721158
391-1366997,7728.142848,-59.680082,-3915.937647,-6665.853999,-3814.243310,6724.012913
391-1367005,0.000000,0.000000,0.000000,0.000000,-3812.379930,6722.686191
391-1367006,0.000000,0.000000,-3915.716356,-6663.541588,0.000000,0.000000
391-1367007,7726.083706,-60.620849,0.000000,0.000000,0.000000,0.000000
391-1367009,7724.316012,-61.385876,0.000000,0.000000,0.000000,0.000000
391-1367010,0.000000,0.000000,-3915.452546,-6661.257826,0.000000,0.000000
391-1367011,0.000000,0.000000,0.000000,0.000000,-3810.861997,6721.559245
391-1384582,0.000000,0.000000,0.000000,0.000000,-3812.379930,6722.686191
391-1384583,0.000000,0.000000,-3915.716356,-6663.541588,0.000000,0.000000
391-1384584,7726.083706,-60.620849,0.000000,0.000000,0.000000,0.000000
391-1434872,7729.549817,-58.696439,0.000000,0.000000,0.000000,0.000000
391-1434873,0.000000,0.000000,-3915.791625,-6667.530252,0.000000,0.000000
391-1434874,0.000000,0.000000,0.000000,0.000000,-3815.760884,6724.721158
391-1600651,0.000000,0.000000,0.000000,0.000000,-3825.807018,6729.480515
391-1600652,0.000000,0.000000,-3914.882838,-6678.702346,0.000000,0.000000
391-1600654,7738.956181,-52.198955,0.000000,0.000000,0.000000,0.000000
391-1643876,7729.549817,-58.696439,0.000000,0.000000,0.000000,0.000000
391-1643877,0.000000,0.000000,-3915.791625,-6667.530252,0.000000,0.000000
391-1643878,0.000000,0.000000,0.000000,0.000000,-3815.760884,6724.721158
391-1708485,7738.956181,-52.198955,-3914.882838,-6678.702346,-3825.807018,6729.480515
391-261629,0.000000,0.000000,-3915.791625,-6667.530252,0.000000,0.000000
391-261630,7729.549817,-58.696439,0.000000,0.000000,0.000000,0.000000
391-261631,0.000000,0.000000,0.000000,0.000000,-3815.760884,6724.721158
391-261635,7729.549817,-58.696439,0.000000,0.000000,0.000000,0.000000
391-261636,0.000000,0.000000,-3915.791625,-6667.530252,0.000000,0.000000
...